4
0 1 CH2O
O                     0.000000000000     0.000000000000     0.591268219658
C                     0.000000000000     0.000000000000    -0.590400099342
H                     0.000000000000     0.932184336000    -1.177031440342
H                     0.000000000000    -0.932184336000    -1.177031440342
